resultados/CN15_EXP_VOLTAGES.CSV
Bus, BasekV, Node1, Magnitude1, Angle1, pu1, Node2, Magnitude2, Angle2, pu2, Node3, Magnitude3, Angle3, pu3
"SCN_CN15_9153_CEI109", 13.8, 1,    7817.78,   -0.8,   0.98122, 2,    7817.78, -120.8,   0.98122, 3,    7817.78,  119.2,   0.98122
"SCN_CN15_9154_CEI109", 13.8, 1,    7816.67,   -0.8,   0.98108, 2,    7816.67, -120.8,   0.98108, 3,    7816.67,  119.2,   0.98108
"SCN_CN15_9098_CEI131_ATV", 13.8, 1,    7786.49,   -0.7,   0.97729, 2,    7786.49, -120.7,   0.97729, 3,    7786.49,  119.3,   0.97729
"SCN_CN15_9097_CEI131_ATV", 13.8, 1,     7786.5,   -0.7,   0.97729, 2,     7786.5, -120.7,   0.97729, 3,     7786.5,  119.3,   0.97729
"SCN_CN15_9079_CEI201_ATV", 13.8, 1,    7776.35,   -0.7,   0.97602, 2,    7776.35, -120.7,   0.97602, 3,    7776.35,  119.3,   0.97602
"SCN_CN15_9080_CEI201_ATV", 13.8, 1,    7776.35,   -0.7,   0.97602, 2,    7776.35, -120.7,   0.97602, 3,    7776.35,  119.3,   0.97602
"SCN_CN15_9356_CEI109", 13.8, 1,    7782.32,   -0.7,   0.97677, 2,    7782.32, -120.7,   0.97677, 3,    7782.32,  119.3,   0.97677
"SCN_CN15_9349_CEI109", 13.8, 1,    7782.37,   -0.7,   0.97677, 2,    7782.37, -120.7,   0.97677, 3,    7782.37,  119.3,   0.97677
"SCN_CN15_9039_CEI201_ATV", 13.8, 1,    7782.42,   -0.7,   0.97678, 2,    7782.42, -120.7,   0.97678, 3,    7782.42,  119.3,   0.97678
"SCN_CN15_9021_CEI201_ATV", 13.8, 1,     7781.8,   -0.7,    0.9767, 2,     7781.8, -120.7,    0.9767, 3,     7781.8,  119.3,    0.9767
"SCN_CN15_9022_CEI201_ATV", 13.8, 1,    7781.83,   -0.7,    0.9767, 2,    7781.83, -120.7,    0.9767, 3,    7781.83,  119.3,    0.9767
"SCN_CN15_9274_CEI109", 13.8, 1,    7786.47,   -0.7,   0.97729, 2,    7786.47, -120.7,   0.97729, 3,    7786.47,  119.3,   0.97729
"SCN_CN15_9275_CEI109", 13.8, 1,     7786.7,   -0.7,   0.97732, 2,     7786.7, -120.7,   0.97732, 3,     7786.7,  119.3,   0.97732
"SCN_CN15_9269_CEI109", 13.8, 1,    7786.24,   -0.7,   0.97726, 2,    7786.24, -120.7,   0.97726, 3,    7786.24,  119.3,   0.97726
"SCN_CN15_9053_CEI201_ATV", 13.8, 1,    7782.74,   -0.7,   0.97682, 2,    7782.74, -120.7,   0.97682, 3,    7782.74,  119.3,   0.97682
"SCN_CN15_9485_CEI109", 13.8, 1,    7782.74,   -0.7,   0.97682, 2,    7782.74, -120.7,   0.97682, 3,    7782.74,  119.3,   0.97682
"SCN_CN15_421165_CEI", 13.8, 1,     7774.1,   -0.7,   0.97573, 2,     7774.1, -120.7,   0.97573, 3,     7774.1,  119.3,   0.97573
"SCN_CN15_421166_CEI", 13.8, 1,    7773.96,   -0.7,   0.97572, 2,    7773.96, -120.7,   0.97572, 3,    7773.96,  119.3,   0.97572
"SCN_CN15_9143_CEI69B", 13.8, 1,    7773.83,   -0.7,    0.9757, 2,    7773.83, -120.7,    0.9757, 3,    7773.83,  119.3,    0.9757
"SCN_CN15_9141_CEI201_ATV", 13.8, 1,     7774.1,   -0.7,   0.97573, 2,     7774.1, -120.7,   0.97573, 3,     7774.1,  119.3,   0.97573
"SCN_CN15_9129_CEI201_ATV", 13.8, 1,    7773.22,   -0.7,   0.97562, 2,    7773.22, -120.7,   0.97562, 3,    7773.22,  119.3,   0.97562
"SCN_CN15_9008_CEI220_ATV", 13.8, 1,    7773.22,   -0.7,   0.97562, 2,    7773.22, -120.7,   0.97562, 3,    7773.22,  119.3,   0.97562
"SCN_CN15_421168_CEI", 13.8, 1,    7784.08,   -0.7,   0.97699, 2,    7784.08, -120.7,   0.97699, 3,    7784.08,  119.3,   0.97699
"SCN_CN15_9015_CEI109", 13.8, 1,    7784.08,   -0.7,   0.97699, 2,    7784.08, -120.7,   0.97699, 3,    7784.08,  119.3,   0.97699
"SCN_CN15_421185_CEI", 13.8, 1,    7781.59,   -0.7,   0.97667, 2,    7781.59, -120.7,   0.97667, 3,    7781.59,  119.3,   0.97667
"SCN_CN15_9162_CEI220_ATV_S", 13.8, 1,    7781.78,   -0.7,    0.9767, 2,    7781.78, -120.7,    0.9767, 3,    7781.78,  119.3,    0.9767
"SCN_CN15_421186_CEI", 13.8, 1,     7781.4,   -0.7,   0.97665, 2,     7781.4, -120.7,   0.97665, 3,     7781.4,  119.3,   0.97665
"SCN_CN15_421187_CEI", 13.8, 1,    7781.21,   -0.7,   0.97663, 2,    7781.21, -120.7,   0.97663, 3,    7781.21,  119.3,   0.97663
"SCN_CN15_421169_CEI", 13.8, 1,    7781.02,   -0.7,    0.9766, 2,    7781.02, -120.7,    0.9766, 3,    7781.02,  119.3,    0.9766
"SCN_CN15_9012_CEI120", 13.8, 1,    7781.37,   -0.7,   0.97665, 2,    7781.37, -120.7,   0.97665, 3,    7781.37,  119.3,   0.97665
"SCN_CN15_421170_CEI", 13.8, 1,    7780.49,   -0.7,   0.97654, 2,    7780.49, -120.7,   0.97654, 3,    7780.49,  119.3,   0.97654
"SCN_CN15_421171_CEI", 13.8, 1,    7780.49,   -0.7,   0.97654, 2,    7780.49, -120.7,   0.97654, 3,    7780.49,  119.3,   0.97654
"SCN_CN15_421172_CEI", 13.8, 1,    7780.49,   -0.7,   0.97654, 2,    7780.49, -120.7,   0.97654, 3,    7780.49,  119.3,   0.97654
"SCN_CN15_421173_CEI", 13.8, 1,    7780.49,   -0.7,   0.97654, 2,    7780.49, -120.7,   0.97654, 3,    7780.49,  119.3,   0.97654
"SCN_CN15_421174_CEI", 13.8, 1,    7780.49,   -0.7,   0.97654, 2,    7780.49, -120.7,   0.97654, 3,    7780.49,  119.3,   0.97654
"SCN_CN15_421175_CEI", 13.8, 1,    7779.95,   -0.7,   0.97647, 2,    7779.95, -120.7,   0.97647, 3,    7779.95,  119.3,   0.97647
"SCN_CN15_421176_CEI", 13.8, 1,    7779.95,   -0.7,   0.97647, 2,    7779.95, -120.7,   0.97647, 3,    7779.95,  119.3,   0.97647
"SCN_CN15_421177_CEI", 13.8, 1,    7779.95,   -0.7,   0.97647, 2,    7779.95, -120.7,   0.97647, 3,    7779.95,  119.3,   0.97647
"SCN_CN15_421178_CEI", 13.8, 1,    7779.95,   -0.7,   0.97647, 2,    7779.95, -120.7,   0.97647, 3,    7779.95,  119.3,   0.97647
"SCN_CN15_421179_CEI", 13.8, 1,    7779.42,   -0.7,    0.9764, 2,    7779.42, -120.7,    0.9764, 3,    7779.42,  119.3,    0.9764
"SCN_CN15_9047_CEI130_ATV", 13.8, 1,    7778.89,   -0.7,   0.97634, 2,    7778.89, -120.7,   0.97634, 3,    7778.89,  119.3,   0.97634
"SCN_CN15_421180_CEI", 13.8, 1,    7778.89,   -0.7,   0.97634, 2,    7778.89, -120.7,   0.97634, 3,    7778.89,  119.3,   0.97634
"SCN_CN15_9037_CEI130_ATV", 13.8, 1,    7778.36,   -0.7,   0.97627, 2,    7778.36, -120.7,   0.97627, 3,    7778.36,  119.3,   0.97627
"SCN_CN15_9047_CEI130_ATV_S", 13.8, 1,    7778.89,   -0.7,   0.97634, 2,    7778.89, -120.7,   0.97634, 3,    7778.89,  119.3,   0.97634
"SCN_CN15_421181_CEI", 13.8, 1,    7777.83,   -0.7,    0.9762, 2,    7777.83, -120.7,    0.9762, 3,    7777.83,  119.3,    0.9762
"SCN_CN15_9040_CEI130_ATV", 13.8, 1,    7777.83,   -0.7,    0.9762, 2,    7777.83, -120.7,    0.9762, 3,    7777.83,  119.3,    0.9762
"SCN_CN15_421182_CEI", 13.8, 1,    7777.83,   -0.7,    0.9762, 2,    7777.83, -120.7,    0.9762, 3,    7777.83,  119.3,    0.9762
"SCN_CN15_421183_CEI", 13.8, 1,    7777.83,   -0.7,    0.9762, 2,    7777.83, -120.7,    0.9762, 3,    7777.83,  119.3,    0.9762
"SCN_CN15_421184_CEI", 13.8, 1,    7777.83,   -0.7,    0.9762, 2,    7777.83, -120.7,    0.9762, 3,    7777.83,  119.3,    0.9762
"SCN_CN15_421195_CEI", 13.8, 1,    7775.88,   -0.7,   0.97596, 2,    7775.88, -120.7,   0.97596, 3,    7775.88,  119.3,   0.97596
"SCN_CN15_9022_CEI250_ATV", 13.8, 1,    7776.06,   -0.7,   0.97598, 2,    7776.06, -120.7,   0.97598, 3,    7776.06,  119.3,   0.97598
"SCN_CN15_421196_CEI", 13.8, 1,     7775.7,   -0.7,   0.97594, 2,     7775.7, -120.7,   0.97594, 3,     7775.7,  119.3,   0.97594
"SCN_CN15_9025_CEI130_ATV", 13.8, 1,    7775.52,   -0.7,   0.97591, 2,    7775.52, -120.7,   0.97591, 3,    7775.52,  119.3,   0.97591
"SCN_CN15_421197_CEI", 13.8, 1,    7778.87,   -0.7,   0.97633, 2,    7778.87, -120.7,   0.97633, 3,    7778.87,  119.3,   0.97633
"SCN_CN15_9004_CEI160_ATV", 13.8, 1,    7778.87,   -0.7,   0.97633, 2,    7778.87, -120.7,   0.97633, 3,    7778.87,  119.3,   0.97633
"SCN_CN15_9005_CEI160_ATV", 13.8, 1,    7778.87,   -0.7,   0.97633, 2,    7778.87, -120.7,   0.97633, 3,    7778.87,  119.3,   0.97633
"SCN_CN15_9017_CEI130A_ATV", 13.8, 1,    7767.87,   -0.7,   0.97495, 2,    7767.87, -120.7,   0.97495, 3,    7767.87,  119.3,   0.97495
"SCN_CN15_421206_CEI", 13.8, 1,    7767.87,   -0.7,   0.97495, 2,    7767.87, -120.7,   0.97495, 3,    7767.87,  119.3,   0.97495
"SCN_CN15_9034_CEI130A_ATV", 13.8, 1,    7767.81,   -0.7,   0.97495, 2,    7767.81, -120.7,   0.97495, 3,    7767.81,  119.3,   0.97495
"SCN_CN15_421207_CEI", 13.8, 1,    7767.81,   -0.7,   0.97495, 2,    7767.81, -120.7,   0.97495, 3,    7767.81,  119.3,   0.97495
"SCN_CN15_421208_CEI", 13.8, 1,    7767.81,   -0.7,   0.97495, 2,    7767.81, -120.7,   0.97495, 3,    7767.81,  119.3,   0.97495
"SCN_CN15_421209_CEI", 13.8, 1,    7767.81,   -0.7,   0.97495, 2,    7767.81, -120.7,   0.97495, 3,    7767.81,  119.3,   0.97495
"SCN_CN15_421210_CEI", 13.8, 1,    7767.81,   -0.7,   0.97495, 2,    7767.81, -120.7,   0.97495, 3,    7767.81,  119.3,   0.97495
"SCN_CN15_421211_CEI", 13.8, 1,    7767.81,   -0.7,   0.97495, 2,    7767.81, -120.7,   0.97495, 3,    7767.81,  119.3,   0.97495
"SCN_CN15_421212_CEI", 13.8, 1,    7767.81,   -0.7,   0.97495, 2,    7767.81, -120.7,   0.97495, 3,    7767.81,  119.3,   0.97495
"SCN_CN15_9040_CEI130A_ATV", 13.8, 1,    7767.81,   -0.7,   0.97494, 2,    7767.81, -120.7,   0.97494, 3,    7767.81,  119.3,   0.97494
"SCN_CN15_421213_CEI", 13.8, 1,    7767.81,   -0.7,   0.97494, 2,    7767.81, -120.7,   0.97494, 3,    7767.81,  119.3,   0.97494
"SCN_CN15_421218_CEI", 13.8, 1,    7766.09,   -0.7,   0.97473, 2,    7766.09, -120.7,   0.97473, 3,    7766.09,  119.3,   0.97473
"SCN_CN15_9353_CEI065", 13.8, 1,    7766.09,   -0.7,   0.97473, 2,    7766.09, -120.7,   0.97473, 3,    7766.09,  119.3,   0.97473
"SCN_CN15_421219_CEI", 13.8, 1,    7766.09,   -0.7,   0.97473, 2,    7766.09, -120.7,   0.97473, 3,    7766.09,  119.3,   0.97473
"CN_ALCN15", 13.8, 1,    7766.09,   -0.7,   0.97473, 2,    7766.09, -120.7,   0.97473, 3,    7766.09,  119.3,   0.97473
"SCN_CN15_421227_CEI", 13.8, 1,    7767.12,   -0.7,   0.97486, 2,    7767.12, -120.7,   0.97486, 3,    7767.12,  119.3,   0.97486
"SCN_CN15_9006_CEIRJ013_ATV", 13.8, 1,    7767.12,   -0.7,   0.97486, 2,    7767.12, -120.7,   0.97486, 3,    7767.12,  119.3,   0.97486
"SCN_CN15_9067_CEIRJ006_ATV", 13.8, 1,    7767.49,   -0.7,   0.97491, 2,    7767.49, -120.7,   0.97491, 3,    7767.49,  119.3,   0.97491
"SCN_CN15_9064_CEIRJ006_ATV", 13.8, 1,    7767.49,   -0.7,   0.97491, 2,    7767.49, -120.7,   0.97491, 3,    7767.49,  119.3,   0.97491
"SCN_CN15_421241_CEI", 13.8, 1,    7767.49,   -0.7,   0.97491, 2,    7767.49, -120.7,   0.97491, 3,    7767.49,  119.3,   0.97491
"SCN_CN15_9068_CEIRJ006_ATV", 13.8, 1,    7767.49,   -0.7,   0.97491, 2,    7767.49, -120.7,   0.97491, 3,    7767.49,  119.3,   0.97491
"SCN_CN15_9050_CEI160_ATV", 13.8, 1,    7750.58,   -0.7,   0.97278, 2,    7750.58, -120.7,   0.97278, 3,    7750.58,  119.3,   0.97278
"SCN_CN15_9014_CEI077_ATV", 13.8, 1,    7750.59,   -0.7,   0.97278, 2,    7750.59, -120.7,   0.97278, 3,    7750.59,  119.3,   0.97278
"SCN_CN15_9052_CEI160_ATV", 13.8, 1,    7750.58,   -0.7,   0.97278, 2,    7750.58, -120.7,   0.97278, 3,    7750.58,  119.3,   0.97278
"SCN_CN15_421244_CEI", 13.8, 1,    7750.57,   -0.7,   0.97278, 2,    7750.57, -120.7,   0.97278, 3,    7750.57,  119.3,   0.97278
"SCN_CN15_421245_CEI", 13.8, 1,    7750.56,   -0.7,   0.97278, 2,    7750.56, -120.7,   0.97278, 3,    7750.56,  119.3,   0.97278
"SCN_CN15_9005_CEIRJ012_ATV_S", 13.8, 1,    7750.55,   -0.7,   0.97278, 2,    7750.55, -120.7,   0.97278, 3,    7750.55,  119.3,   0.97278
"SCN_CN15_9024_CEI167_ATV", 13.8, 1,    7748.44,   -0.7,   0.97251, 2,    7748.44, -120.7,   0.97251, 3,    7748.44,  119.3,   0.97251
"SCN_CN15_9025_CEI167_ATV", 13.8, 1,    7748.44,   -0.7,   0.97251, 2,    7748.44, -120.7,   0.97251, 3,    7748.44,  119.3,   0.97251
"SCN_CN15_9002_CEIRJ013_ATV", 13.8, 1,    7748.44,   -0.7,   0.97251, 2,    7748.44, -120.7,   0.97251, 3,    7748.44,  119.3,   0.97251
"SCN_CN15_9037_CEI77A_ATV", 13.8, 1,    7748.46,   -0.7,   0.97252, 2,    7748.46, -120.7,   0.97252, 3,    7748.46,  119.3,   0.97252
"SCN_CN15_9035_CEIRJ006_ATV", 13.8, 1,    7748.46,   -0.7,   0.97252, 2,    7748.46, -120.7,   0.97252, 3,    7748.46,  119.3,   0.97252
"SCN_CN15_9036_CEIRJ006_ATV", 13.8, 1,    7748.46,   -0.7,   0.97252, 2,    7748.46, -120.7,   0.97252, 3,    7748.46,  119.3,   0.97252
"SCN_CN15_9105_CEI201_ATV", 13.8, 1,    7776.32,   -0.7,   0.97601, 2,    7776.32, -120.7,   0.97601, 3,    7776.32,  119.3,   0.97601
"SCN_CN15_9102_CEI201_ATV_S", 13.8, 1,    7776.32,   -0.7,   0.97601, 2,    7776.32, -120.7,   0.97601, 3,    7776.32,  119.3,   0.97601
"SCN_CN15_9017_CEI201_ATV", 13.8, 1,    7781.74,   -0.7,   0.97669, 2,    7781.74, -120.7,   0.97669, 3,    7781.74,  119.3,   0.97669
"SCN_CN15_9019_CEI201_ATV", 13.8, 1,    7781.77,   -0.7,    0.9767, 2,    7781.77, -120.7,    0.9767, 3,    7781.77,  119.3,    0.9767
"SCN_CN15_9019_CEI134C_ATV", 13.8, 1,    7787.82,   -0.7,   0.97746, 2,    7787.82, -120.7,   0.97746, 3,    7787.82,  119.3,   0.97746
"SCN_CN15_9020_CEI134C_ATV", 13.8, 1,    7787.82,   -0.7,   0.97746, 2,    7787.82, -120.7,   0.97746, 3,    7787.82,  119.3,   0.97746
"SCN_CN15_9022_CEI134C_ATV", 13.8, 1,    7787.81,   -0.7,   0.97746, 2,    7787.81, -120.7,   0.97746, 3,    7787.81,  119.3,   0.97746
"SCN_CN15_9021_CEI134C_ATV", 13.8, 1,    7787.81,   -0.7,   0.97745, 2,    7787.81, -120.7,   0.97745, 3,    7787.81,  119.3,   0.97745
"SCN_CN15_9023_CEI134C_ATV", 13.8, 1,     7787.8,   -0.7,   0.97745, 2,     7787.8, -120.7,   0.97745, 3,     7787.8,  119.3,   0.97745
"SCN_CN15_9034_CEI134C_ATV", 13.8, 1,     7787.8,   -0.7,   0.97745, 2,     7787.8, -120.7,   0.97745, 3,     7787.8,  119.3,   0.97745
"SCN_CN15_9035_CEI134C_ATV", 13.8, 1,     7787.8,   -0.7,   0.97745, 2,     7787.8, -120.7,   0.97745, 3,     7787.8,  119.3,   0.97745
"SCN_CN15_9036_CEI134C_ATV", 13.8, 1,    7787.79,   -0.7,   0.97745, 2,    7787.79, -120.7,   0.97745, 3,    7787.79,  119.3,   0.97745
"SCN_CN15_9024_CEI134B_ATV", 13.8, 1,    7787.97,   -0.7,   0.97748, 2,    7787.97, -120.7,   0.97748, 3,    7787.97,  119.3,   0.97748
"SCN_CN15_9027_CEI134B_ATV", 13.8, 1,    7787.97,   -0.7,   0.97747, 2,    7787.97, -120.7,   0.97747, 3,    7787.97,  119.3,   0.97747
"SCN_CN15_9026_CEI134B_ATV", 13.8, 1,    7787.97,   -0.7,   0.97747, 2,    7787.97, -120.7,   0.97747, 3,    7787.97,  119.3,   0.97747
"SCN_CN15_9028_CEI134B_ATV", 13.8, 1,    7787.97,   -0.7,   0.97747, 2,    7787.97, -120.7,   0.97747, 3,    7787.97,  119.3,   0.97747
"SCN_CN15_9011_CEI134_ATV", 13.8, 1,    7788.71,   -0.7,   0.97757, 2,    7788.71, -120.7,   0.97757, 3,    7788.71,  119.3,   0.97757
"SCN_CN15_9009_CEI134A_ATV", 13.8, 1,    7788.68,   -0.7,   0.97756, 2,    7788.68, -120.7,   0.97756, 3,    7788.68,  119.3,   0.97756
"SCN_CN15_9002_CEI134_ATV", 13.8, 1,    7788.84,   -0.7,   0.97758, 2,    7788.84, -120.7,   0.97758, 3,    7788.84,  119.3,   0.97758
"SCN_CN15_9003_CEI134_ATV", 13.8, 1,    7788.84,   -0.7,   0.97758, 2,    7788.84, -120.7,   0.97758, 3,    7788.84,  119.3,   0.97758
"SCN_CN15_9101_CEI109", 13.8, 1,    7796.19,   -0.8,   0.97851, 2,    7796.19, -120.8,   0.97851, 3,    7796.19,  119.2,   0.97851
"SCN_CN15_9102_CEI109", 13.8, 1,    7796.19,   -0.8,   0.97851, 2,    7796.19, -120.8,   0.97851, 3,    7796.19,  119.2,   0.97851
"SCN_CN15_9103_CEI109", 13.8, 1,    7796.18,   -0.8,   0.97851, 2,    7796.18, -120.8,   0.97851, 3,    7796.18,  119.2,   0.97851
"SCN_CN15_9104_CEI109", 13.8, 1,    7796.18,   -0.8,   0.97851, 2,    7796.18, -120.8,   0.97851, 3,    7796.18,  119.2,   0.97851
"SCN_CN15_9105_CEI109", 13.8, 1,    7796.17,   -0.8,   0.97851, 2,    7796.17, -120.8,   0.97851, 3,    7796.17,  119.2,   0.97851
"SCN_CN15_9106_CEI109", 13.8, 1,    7796.17,   -0.8,    0.9785, 2,    7796.17, -120.8,    0.9785, 3,    7796.17,  119.2,    0.9785
"SCN_CN15_9108_CEI109", 13.8, 1,    7796.17,   -0.8,    0.9785, 2,    7796.17, -120.8,    0.9785, 3,    7796.17,  119.2,    0.9785
"SCN_CN15_9109_CEI109", 13.8, 1,    7796.16,   -0.8,    0.9785, 2,    7796.16, -120.8,    0.9785, 3,    7796.16,  119.2,    0.9785
"SCN_CN15_9110_CEI109", 13.8, 1,    7796.16,   -0.8,    0.9785, 2,    7796.16, -120.8,    0.9785, 3,    7796.16,  119.2,    0.9785
"SCN_CN15_9111_CEI109", 13.8, 1,    7796.15,   -0.8,    0.9785, 2,    7796.15, -120.8,    0.9785, 3,    7796.15,  119.2,    0.9785
"SCN_CN15_9112_CEI109", 13.8, 1,    7796.15,   -0.8,    0.9785, 2,    7796.15, -120.8,    0.9785, 3,    7796.15,  119.2,    0.9785
"SCN_CN15_9113_CEI109", 13.8, 1,    7796.15,   -0.8,    0.9785, 2,    7796.15, -120.8,    0.9785, 3,    7796.15,  119.2,    0.9785
"SCN_CN15_9114_CEI109", 13.8, 1,    7796.14,   -0.8,    0.9785, 2,    7796.14, -120.8,    0.9785, 3,    7796.14,  119.2,    0.9785
"SCN_CN15_9115_CEI109", 13.8, 1,    7796.14,   -0.8,    0.9785, 2,    7796.14, -120.8,    0.9785, 3,    7796.14,  119.2,    0.9785
"SCN_CN15_9116_CEI109", 13.8, 1,    7796.14,   -0.8,    0.9785, 2,    7796.14, -120.8,    0.9785, 3,    7796.14,  119.2,    0.9785
"SCN_CN15_9010_CEI120", 13.8, 1,    7782.05,   -0.7,   0.97673, 2,    7782.05, -120.7,   0.97673, 3,    7782.05,  119.3,   0.97673
"SCN_CN15_9011_CEI120", 13.8, 1,    7781.71,   -0.7,   0.97669, 2,    7781.71, -120.7,   0.97669, 3,    7781.71,  119.3,   0.97669
"SCN_CN15_9045_CEI130_ATV", 13.8, 1,    7778.88,   -0.7,   0.97633, 2,    7778.88, -120.7,   0.97633, 3,    7778.88,  119.3,   0.97633
"SCN_CN15_9044_CEI130_ATV", 13.8, 1,    7778.88,   -0.7,   0.97633, 2,    7778.88, -120.7,   0.97633, 3,    7778.88,  119.3,   0.97633
"SCN_CN15_9043_CEI130_ATV", 13.8, 1,    7778.88,   -0.7,   0.97633, 2,    7778.88, -120.7,   0.97633, 3,    7778.88,  119.3,   0.97633
"SCN_CN15_9014_CEI69B", 13.8, 1,    7774.11,   -0.7,   0.97574, 2,    7774.11, -120.7,   0.97574, 3,    7774.11,  119.3,   0.97574
"SCN_CN15_9015_CEI69B", 13.8, 1,    7773.93,   -0.7,   0.97571, 2,    7773.94, -120.7,   0.97571, 3,    7773.93,  119.3,   0.97571
"SCN_CN15_9559_CEI109", 13.8, 1,    7785.38,   -0.7,   0.97715, 2,    7785.38, -120.7,   0.97715, 3,    7785.38,  119.3,   0.97715
"SCN_CN15_9570_CEI109", 13.8, 1,    7785.38,   -0.7,   0.97715, 2,    7785.38, -120.7,   0.97715, 3,    7785.38,  119.3,   0.97715
"SCN_CN15_9558_CEI109", 13.8, 1,    7785.16,   -0.7,   0.97712, 2,    7785.16, -120.7,   0.97712, 3,    7785.16,  119.3,   0.97712
"SCN_CN15_9560_CEI109", 13.8, 1,     7785.6,   -0.7,   0.97718, 2,     7785.6, -120.7,   0.97718, 3,     7785.6,  119.3,   0.97718
"SCN_CN15_9555_CEI109", 13.8, 1,    7784.95,   -0.7,    0.9771, 2,    7784.95, -120.7,    0.9771, 3,    7784.95,  119.3,    0.9771
"SCN_CN15_9552_CEI109", 13.8, 1,    7784.73,   -0.7,   0.97707, 2,    7784.73, -120.7,   0.97707, 3,    7784.73,  119.3,   0.97707
"SCN_CN15_9550_CEI109", 13.8, 1,    7784.52,   -0.7,   0.97704, 2,    7784.52, -120.7,   0.97704, 3,    7784.52,  119.3,   0.97704
"SCN_CN15_9548_CEI109", 13.8, 1,     7784.3,   -0.7,   0.97702, 2,     7784.3, -120.7,   0.97702, 3,     7784.3,  119.3,   0.97702
"SCN_CN15_9017_CEI109", 13.8, 1,    7784.09,   -0.7,   0.97699, 2,    7784.09, -120.7,   0.97699, 3,    7784.09,  119.3,   0.97699
"SCN_CN15_9548_CEI109_S", 13.8, 1,     7784.3,   -0.7,   0.97702, 2,     7784.3, -120.7,   0.97702, 3,     7784.3,  119.3,   0.97702
"SCN_CN15_9016_CEI109", 13.8, 1,    7784.09,   -0.7,   0.97699, 2,    7784.09, -120.7,   0.97699, 3,    7784.09,  119.3,   0.97699
"SCN_CN15_9014_CEI109", 13.8, 1,    7784.08,   -0.7,   0.97699, 2,    7784.08, -120.7,   0.97699, 3,    7784.08,  119.3,   0.97699
"SCN_CN15_9013_CEI109", 13.8, 1,    7784.07,   -0.7,   0.97699, 2,    7784.07, -120.7,   0.97699, 3,    7784.07,  119.3,   0.97699
"SCN_CN15_9012_CEI109", 13.8, 1,    7784.06,   -0.7,   0.97699, 2,    7784.06, -120.7,   0.97699, 3,    7784.06,  119.3,   0.97699
"SCN_CN15_9008_CEI109", 13.8, 1,    7784.06,   -0.7,   0.97698, 2,    7784.06, -120.7,   0.97698, 3,    7784.06,  119.3,   0.97698
"SCN_CN15_9009_CEI109", 13.8, 1,    7784.05,   -0.7,   0.97698, 2,    7784.06, -120.7,   0.97698, 3,    7784.05,  119.3,   0.97698
"SCN_CN15_9010_CEI109", 13.8, 1,    7784.05,   -0.7,   0.97698, 2,    7784.05, -120.7,   0.97698, 3,    7784.05,  119.3,   0.97698
"SCN_CN15_9011_CEI109", 13.8, 1,    7784.05,   -0.7,   0.97698, 2,    7784.05, -120.7,   0.97698, 3,    7784.05,  119.3,   0.97698
"SCN_CN15_9547_CEI109", 13.8, 1,     7784.3,   -0.7,   0.97701, 2,     7784.3, -120.7,   0.97701, 3,     7784.3,  119.3,   0.97701
"SCN_CN15_9007_CEI109", 13.8, 1,    7784.06,   -0.7,   0.97698, 2,    7784.06, -120.7,   0.97698, 3,    7784.06,  119.3,   0.97698
"SCN_CN15_9006_CEI109", 13.8, 1,    7784.05,   -0.7,   0.97698, 2,    7784.05, -120.7,   0.97698, 3,    7784.05,  119.3,   0.97698
"SCN_CN15_9005_CEI109", 13.8, 1,    7784.05,   -0.7,   0.97698, 2,    7784.05, -120.7,   0.97698, 3,    7784.05,  119.3,   0.97698
"SCN_CN15_9004_CEI109", 13.8, 1,    7784.05,   -0.7,   0.97698, 2,    7784.05, -120.7,   0.97698, 3,    7784.05,  119.3,   0.97698
"SCN_CN15_9002_CEI109", 13.8, 1,    7773.25,   -0.7,   0.97563, 2,    7773.25, -120.7,   0.97563, 3,    7773.25,  119.3,   0.97563
"SCN_CN15_9003_CEI109", 13.8, 1,    7773.25,   -0.7,   0.97563, 2,    7773.25, -120.7,   0.97563, 3,    7773.25,  119.3,   0.97563
"SCN_CN15_9001_CEI109", 13.8, 1,    7773.25,   -0.7,   0.97563, 2,    7773.25, -120.7,   0.97563, 3,    7773.25,  119.3,   0.97563
"SCN_CN15_9122_CEI201_ATV", 13.8, 1,    7773.25,   -0.7,   0.97563, 2,    7773.25, -120.7,   0.97563, 3,    7773.25,  119.3,   0.97563
"SCN_CN15_9241_CEI109", 13.8, 1,    7800.08,   -0.8,   0.97899, 2,    7800.08, -120.8,   0.97899, 3,    7800.08,  119.2,   0.97899
"SCN_CN15_9204_CEI109", 13.8, 1,    7800.08,   -0.8,     0.979, 2,    7800.08, -120.8,     0.979, 3,    7800.08,  119.2,     0.979
"SCN_CN15_9242_CEI109", 13.8, 1,    7800.08,   -0.8,   0.97899, 2,    7800.08, -120.8,   0.97899, 3,    7800.08,  119.2,   0.97899
"SCN_CN15_9243_CEI109", 13.8, 1,    7800.07,   -0.8,   0.97899, 2,    7800.07, -120.8,   0.97899, 3,    7800.07,  119.2,   0.97899
"SCN_CN15_9244_CEI109", 13.8, 1,    7800.07,   -0.8,   0.97899, 2,    7800.07, -120.8,   0.97899, 3,    7800.07,  119.2,   0.97899
"SCN_CN15_9245_CEI109", 13.8, 1,    7800.07,   -0.8,   0.97899, 2,    7800.07, -120.8,   0.97899, 3,    7800.07,  119.2,   0.97899
"SCN_CN15_9190_CEI109", 13.8, 1,    7806.74,   -0.8,   0.97983, 2,    7806.74, -120.8,   0.97983, 3,    7806.74,  119.2,   0.97983
"SCN_CN15_9191_CEI109", 13.8, 1,    7806.74,   -0.8,   0.97983, 2,    7806.74, -120.8,   0.97983, 3,    7806.74,  119.2,   0.97983
"SCN_CN15_9166_CEI109", 13.8, 1,    7807.84,   -0.8,   0.97997, 2,    7807.84, -120.8,   0.97997, 3,    7807.84,  119.2,   0.97997
"SCN_CN15_9167_CEI109", 13.8, 1,    7807.84,   -0.8,   0.97997, 2,    7807.84, -120.8,   0.97997, 3,    7807.84,  119.2,   0.97997
"SCN_CN15_9168_CEI109", 13.8, 1,    7807.83,   -0.8,   0.97997, 2,    7807.83, -120.8,   0.97997, 3,    7807.83,  119.2,   0.97997
"SCN_CN15_9169_CEI109", 13.8, 1,    7807.83,   -0.8,   0.97997, 2,    7807.83, -120.8,   0.97997, 3,    7807.83,  119.2,   0.97997
"SCN_CN15_9183_CEI109", 13.8, 1,    7807.83,   -0.8,   0.97997, 2,    7807.83, -120.8,   0.97997, 3,    7807.83,  119.2,   0.97997
"SCN_CN15_9330_CEI109", 13.8, 1,    7782.73,   -0.7,   0.97682, 2,    7782.73, -120.7,   0.97682, 3,    7782.73,  119.3,   0.97682
"SCN_CN15_9329_CEI109", 13.8, 1,    7782.79,   -0.7,   0.97682, 2,    7782.79, -120.7,   0.97683, 3,    7782.79,  119.3,   0.97683
"SCN_CN15_9328_CEI109", 13.8, 1,    7782.85,   -0.7,   0.97683, 2,    7782.85, -120.7,   0.97683, 3,    7782.85,  119.3,   0.97683
"SCN_CN15_9165_CEI068", 13.8, 1,    7770.57,   -0.7,   0.97529, 2,    7770.57, -120.7,   0.97529, 3,    7770.57,  119.3,   0.97529
"SCN_CN15_9166_CEI068", 13.8, 1,    7770.55,   -0.7,   0.97529, 2,    7770.55, -120.7,   0.97529, 3,    7770.55,  119.3,   0.97529
"SCN_CN15_9327_CEI109", 13.8, 1,    7782.91,   -0.7,   0.97684, 2,    7782.91, -120.7,   0.97684, 3,    7782.91,  119.3,   0.97684
"SCN_CN15_9399_CEI109", 13.8, 1,    7782.98,   -0.7,   0.97685, 2,    7782.98, -120.7,   0.97685, 3,    7782.98,  119.3,   0.97685
"SCN_CN15_9029_CEI160_ATV", 13.8, 1,    7782.98,   -0.7,   0.97685, 2,    7782.98, -120.7,   0.97685, 3,    7782.98,  119.3,   0.97685
"SCN_CN15_9057_CEI075", 13.8, 1,    7770.73,   -0.7,   0.97531, 2,    7770.73, -120.7,   0.97531, 3,    7770.73,  119.3,   0.97531
"SCN_CN15_9054_CEIRJ006_ATV", 13.8, 1,    7770.73,   -0.7,   0.97531, 2,    7770.73, -120.7,   0.97531, 3,    7770.73,  119.3,   0.97531
"SCN_CN15_9040_CEI77A_ATV", 13.8, 1,    7748.45,   -0.7,   0.97252, 2,    7748.45, -120.7,   0.97252, 3,    7748.45,  119.3,   0.97252
"SCN_CN15_9042_CEI77A_ATV", 13.8, 1,    7748.45,   -0.7,   0.97252, 2,    7748.45, -120.7,   0.97252, 3,    7748.45,  119.3,   0.97252
"SCN_CN15_9043_CEI77A_ATV", 13.8, 1,    7748.45,   -0.7,   0.97252, 2,    7748.45, -120.7,   0.97252, 3,    7748.45,  119.3,   0.97252
"SCN_CN15_9190_CEI77A_ATV", 13.8, 1,    7748.57,   -0.7,   0.97253, 2,    7748.57, -120.7,   0.97253, 3,    7748.57,  119.3,   0.97253
"SCN_CN15_9194_CEI77A_ATV", 13.8, 1,    7748.56,   -0.7,   0.97253, 2,    7748.56, -120.7,   0.97253, 3,    7748.56,  119.3,   0.97253
"SCN_CN15_9195_CEI77A_ATV", 13.8, 1,    7748.55,   -0.7,   0.97253, 2,    7748.55, -120.7,   0.97253, 3,    7748.55,  119.3,   0.97253
"SCN_CN15_9196_CEI77A_ATV", 13.8, 1,    7748.55,   -0.7,   0.97253, 2,    7748.55, -120.7,   0.97253, 3,    7748.55,  119.3,   0.97253
"SCN_CN15_9197_CEI77A_ATV", 13.8, 1,    7748.54,   -0.7,   0.97253, 2,    7748.54, -120.7,   0.97253, 3,    7748.54,  119.3,   0.97253
"SCN_CN15_9198_CEI77A_ATV", 13.8, 1,    7748.53,   -0.7,   0.97253, 2,    7748.53, -120.7,   0.97253, 3,    7748.53,  119.3,   0.97253
"SCN_CN15_9199_CEI77A_ATV", 13.8, 1,    7748.53,   -0.7,   0.97252, 2,    7748.53, -120.7,   0.97253, 3,    7748.53,  119.3,   0.97253
"SCN_CN15_9200_CEI77A_ATV", 13.8, 1,    7748.63,   -0.7,   0.97254, 2,    7748.64, -120.7,   0.97254, 3,    7748.63,  119.3,   0.97254
"SCN_CN15_9201_CEI77A_ATV", 13.8, 1,    7748.64,   -0.7,   0.97254, 2,    7748.64, -120.7,   0.97254, 3,    7748.64,  119.3,   0.97254
"SCN_CN15_9039_CEI076", 13.8, 1,    7765.45,   -0.7,   0.97465, 2,    7765.45, -120.7,   0.97465, 3,    7765.45,  119.3,   0.97465
"SCN_CN15_9041_CEI076", 13.8, 1,    7765.45,   -0.7,   0.97465, 2,    7765.45, -120.7,   0.97465, 3,    7765.45,  119.3,   0.97465
"SCN_CN15_9042_CEI076", 13.8, 1,    7765.45,   -0.7,   0.97465, 2,    7765.45, -120.7,   0.97465, 3,    7765.45,  119.3,   0.97465
"SCN_CN15_9044_CEI076", 13.8, 1,    7765.45,   -0.7,   0.97465, 2,    7765.45, -120.7,   0.97465, 3,    7765.45,  119.3,   0.97465
"SCN_CN15_9045_CEI076", 13.8, 1,    7765.45,   -0.7,   0.97465, 2,    7765.45, -120.7,   0.97465, 3,    7765.45,  119.3,   0.97465
"SCN_CN15_9057_CEI068", 13.8, 1,    7766.43,   -0.7,   0.97477, 2,    7766.43, -120.7,   0.97477, 3,    7766.43,  119.3,   0.97477
"SCN_CN15_9058_CEI068", 13.8, 1,    7766.43,   -0.7,   0.97477, 2,    7766.43, -120.7,   0.97477, 3,    7766.43,  119.3,   0.97477
"SCN_CN15_9236_CEI068", 13.8, 1,    7766.43,   -0.7,   0.97477, 2,    7766.43, -120.7,   0.97477, 3,    7766.43,  119.3,   0.97477
"SCN_CN15_9240_CEI068", 13.8, 1,    7766.43,   -0.7,   0.97477, 2,    7766.43, -120.7,   0.97477, 3,    7766.43,  119.3,   0.97477
"SCN_CN15_9063_CEI072", 13.8, 1,    7752.75,   -0.7,   0.97305, 2,    7752.75, -120.7,   0.97305, 3,    7752.75,  119.3,   0.97305
"SCN_CN15_CEI_FL_MT_37442", 13.8, 1,    7752.75,   -0.7,   0.97306, 2,    7752.75, -120.7,   0.97306, 3,    7752.75,  119.3,   0.97306
"SCN_CN15_9088_CEI072", 13.8, 1,    7752.75,   -0.7,   0.97306, 2,    7752.75, -120.7,   0.97306, 3,    7752.75,  119.3,   0.97306
"SCN_CN15_9089_CEI072", 13.8, 1,    7752.48,   -0.7,   0.97302, 2,    7752.48, -120.7,   0.97302, 3,    7752.48,  119.3,   0.97302
"SCN_CN15_9062_CEI072", 13.8, 1,    7753.03,   -0.7,   0.97309, 2,    7753.03, -120.7,   0.97309, 3,    7753.03,  119.3,   0.97309
"SCN_CN15_9061_CEI071", 13.8, 1,    7756.82,   -0.7,   0.97357, 2,    7756.82, -120.7,   0.97357, 3,    7756.82,  119.3,   0.97357
"SCN_CN15_9072_CEI071", 13.8, 1,    7756.82,   -0.7,   0.97357, 2,    7756.82, -120.7,   0.97357, 3,    7756.82,  119.3,   0.97357
"SCN_CN15_9073_CEI071", 13.8, 1,    7756.82,   -0.7,   0.97357, 2,    7756.82, -120.7,   0.97357, 3,    7756.82,  119.3,   0.97357
"SCN_CN15_9075_CEI071", 13.8, 1,    7756.81,   -0.7,   0.97356, 2,    7756.81, -120.7,   0.97356, 3,    7756.81,  119.3,   0.97356
"SCN_CN15_9078_CEI071", 13.8, 1,    7756.81,   -0.7,   0.97356, 2,    7756.81, -120.7,   0.97356, 3,    7756.81,  119.3,   0.97356
"SCN_CN15_9079_CEI071", 13.8, 1,     7756.8,   -0.7,   0.97356, 2,     7756.8, -120.7,   0.97356, 3,     7756.8,  119.3,   0.97356
"SCN_CN15_9080_CEI071", 13.8, 1,     7756.8,   -0.7,   0.97356, 2,     7756.8, -120.7,   0.97356, 3,     7756.8,  119.3,   0.97356
"SCN_CN15_9081_CEI071", 13.8, 1,     7756.8,   -0.7,   0.97356, 2,     7756.8, -120.7,   0.97356, 3,     7756.8,  119.3,   0.97356
"SCN_CN15_9082_CEI071", 13.8, 1,    7756.79,   -0.7,   0.97356, 2,    7756.79, -120.7,   0.97356, 3,    7756.79,  119.3,   0.97356
"SCN_CN15_9083_CEI071", 13.8, 1,    7756.79,   -0.7,   0.97356, 2,    7756.79, -120.7,   0.97356, 3,    7756.79,  119.3,   0.97356
"SCN_CN15_9084_CEI071", 13.8, 1,    7756.79,   -0.7,   0.97356, 2,    7756.79, -120.7,   0.97356, 3,    7756.79,  119.3,   0.97356
"SCN_CN15_9145_CEI220_ATV", 13.8, 1,    7782.63,   -0.7,    0.9768, 2,    7782.63, -120.7,    0.9768, 3,    7782.63,  119.3,    0.9768
"SCN_CN15_9146_CEI220_ATV", 13.8, 1,    7782.62,   -0.7,    0.9768, 2,    7782.63, -120.7,    0.9768, 3,    7782.62,  119.3,    0.9768
"SCN_CN15_9004_CEI220_ATV", 13.8, 1,    7773.24,   -0.7,   0.97563, 2,    7773.24, -120.7,   0.97563, 3,    7773.24,  119.3,   0.97563
"SCN_CN15_9005_CEI220_ATV", 13.8, 1,    7773.24,   -0.7,   0.97563, 2,    7773.24, -120.7,   0.97563, 3,    7773.24,  119.3,   0.97563
"SCN_CN15_9088_CEI201_ATV", 13.8, 1,    7774.36,   -0.7,   0.97577, 2,    7774.36, -120.7,   0.97577, 3,    7774.36,  119.3,   0.97577
"SCN_CN15_9089_CEI201_ATV", 13.8, 1,    7774.37,   -0.7,   0.97577, 2,    7774.37, -120.7,   0.97577, 3,    7774.37,  119.3,   0.97577
"SCN_CN15_9016_CEIRJ003", 13.8, 1,    7774.23,   -0.7,   0.97575, 2,    7774.23, -120.7,   0.97575, 3,    7774.23,  119.3,   0.97575
"SCN_CN15_9089_CEI201_ATV_S", 13.8, 1,    7774.37,   -0.7,   0.97577, 2,    7774.37, -120.7,   0.97577, 3,    7774.37,  119.3,   0.97577
"SCN_CN15_9123_CEI69B", 13.8, 1,     7773.7,   -0.7,   0.97568, 2,     7773.7, -120.7,   0.97568, 3,     7773.7,  119.3,   0.97568
"SCN_CN15_9121_CEI69B", 13.8, 1,    7773.58,   -0.7,   0.97567, 2,    7773.58, -120.7,   0.97567, 3,    7773.58,  119.3,   0.97567
"SCN_CN15_9119_CEI69B", 13.8, 1,    7773.46,   -0.7,   0.97565, 2,    7773.46, -120.7,   0.97565, 3,    7773.46,  119.3,   0.97565
"SCN_CN15_9276_CEI109", 13.8, 1,    7786.92,   -0.7,   0.97734, 2,    7786.92, -120.7,   0.97734, 3,    7786.92,  119.3,   0.97734
"SCN_CN15_9277_CEI109", 13.8, 1,    7787.15,   -0.7,   0.97737, 2,    7787.15, -120.7,   0.97737, 3,    7787.15,  119.3,   0.97737
"SCN_CN15_9118_CEI69B", 13.8, 1,    7773.34,   -0.7,   0.97564, 2,    7773.34, -120.7,   0.97564, 3,    7773.34,  119.3,   0.97564
"SCN_CN15_9114_CEI230_ATV", 13.8, 1,    7773.22,   -0.7,   0.97562, 2,    7773.22, -120.7,   0.97562, 3,    7773.22,  119.3,   0.97562
"SCN_CN15_9113_CEI230_ATV", 13.8, 1,     7773.1,   -0.7,   0.97561, 2,     7773.1, -120.7,   0.97561, 3,     7773.1,  119.3,   0.97561
"SCN_CN15_9112_CEI230_ATV", 13.8, 1,    7772.98,   -0.7,   0.97559, 2,    7772.98, -120.7,   0.97559, 3,    7772.98,  119.3,   0.97559
"SCN_CN15_9111_CEI230_ATV_S", 13.8, 1,    7772.86,   -0.7,   0.97558, 2,    7772.86, -120.7,   0.97558, 3,    7772.86,  119.3,   0.97558
"SCN_CN15_9110_CEI230_ATV", 13.8, 1,    7772.86,   -0.7,   0.97558, 2,    7772.86, -120.7,   0.97558, 3,    7772.86,  119.3,   0.97558
"SCN_CN15_9111_CEI230_ATV", 13.8, 1,    7772.86,   -0.7,   0.97558, 2,    7772.86, -120.7,   0.97558, 3,    7772.86,  119.3,   0.97558
"SCN_CN15_9109_CEI230_ATV", 13.8, 1,    7772.86,   -0.7,   0.97558, 2,    7772.86, -120.7,   0.97558, 3,    7772.86,  119.3,   0.97558
"SCN_CN15_9108_CEI230_ATV", 13.8, 1,    7772.86,   -0.7,   0.97558, 2,    7772.86, -120.7,   0.97558, 3,    7772.86,  119.3,   0.97558
"SCN_CN15_9107_CEI230_ATV", 13.8, 1,    7772.86,   -0.7,   0.97558, 2,    7772.86, -120.7,   0.97558, 3,    7772.86,  119.3,   0.97558
"SCN_CN15_9106_CEI230_ATV", 13.8, 1,    7772.85,   -0.7,   0.97558, 2,    7772.85, -120.7,   0.97558, 3,    7772.85,  119.3,   0.97558
"SCN_CN15_9278_CEI109", 13.8, 1,    7787.37,   -0.7,    0.9774, 2,    7787.37, -120.7,    0.9774, 3,    7787.37,  119.3,    0.9774
"SCN_CN15_9104_CEI230_ATV", 13.8, 1,    7772.85,   -0.7,   0.97558, 2,    7772.85, -120.7,   0.97558, 3,    7772.85,  119.3,   0.97558
"SCN_CN15_9105_CEI230_ATV", 13.8, 1,    7772.85,   -0.7,   0.97558, 2,    7772.85, -120.7,   0.97558, 3,    7772.85,  119.3,   0.97558
"SCN_CN15_9103_CEI230_ATV", 13.8, 1,    7772.85,   -0.7,   0.97558, 2,    7772.85, -120.7,   0.97558, 3,    7772.85,  119.3,   0.97558
"SCN_CN15_9102_CEI230_ATV", 13.8, 1,    7772.85,   -0.7,   0.97558, 2,    7772.85, -120.7,   0.97558, 3,    7772.85,  119.3,   0.97558
"SCN_CN15_9100_CEI230_ATV", 13.8, 1,    7772.85,   -0.7,   0.97558, 2,    7772.85, -120.7,   0.97558, 3,    7772.85,  119.3,   0.97558
"SCN_CN15_9099_CEI230_ATV", 13.8, 1,    7772.85,   -0.7,   0.97558, 2,    7772.85, -120.7,   0.97558, 3,    7772.85,  119.3,   0.97558
"SCN_CN15_9098_CEI230_ATV", 13.8, 1,    7772.85,   -0.7,   0.97558, 2,    7772.85, -120.7,   0.97558, 3,    7772.85,  119.3,   0.97558
"SCN_CN15_9097_CEI230_ATV", 13.8, 1,    7772.84,   -0.7,   0.97558, 2,    7772.84, -120.7,   0.97558, 3,    7772.84,  119.3,   0.97558
"SCN_CN15_9096_CEI230_ATV", 13.8, 1,    7772.84,   -0.7,   0.97558, 2,    7772.84, -120.7,   0.97558, 3,    7772.84,  119.3,   0.97558
"SCN_CN15_9094_CEI230_ATV", 13.8, 1,    7772.84,   -0.7,   0.97558, 2,    7772.84, -120.7,   0.97558, 3,    7772.84,  119.3,   0.97558
"SCN_CN15_9281_CEI109", 13.8, 1,     7787.6,   -0.7,   0.97743, 2,     7787.6, -120.7,   0.97743, 3,     7787.6,  119.3,   0.97743
"SCN_CN15_9095_CEI230_ATV", 13.8, 1,    7772.84,   -0.7,   0.97558, 2,    7772.84, -120.7,   0.97558, 3,    7772.84,  119.3,   0.97558
"SCN_CN15_9120_CEI230_ATV", 13.8, 1,    7772.74,   -0.7,   0.97556, 2,    7772.74, -120.7,   0.97556, 3,    7772.74,  119.3,   0.97556
"SCN_CN15_9115_CEI230_ATV", 13.8, 1,    7772.74,   -0.7,   0.97556, 2,    7772.74, -120.7,   0.97556, 3,    7772.74,  119.3,   0.97556
"SCN_CN15_9119_CEI230_ATV", 13.8, 1,    7772.62,   -0.7,   0.97555, 2,    7772.62, -120.7,   0.97555, 3,    7772.62,  119.3,   0.97555
"SCN_CN15_9331_CEI109", 13.8, 1,    7782.66,   -0.7,   0.97681, 2,    7782.66, -120.7,   0.97681, 3,    7782.66,  119.3,   0.97681
"SCN_CN15_9332_CEI109", 13.8, 1,     7782.6,   -0.7,    0.9768, 2,     7782.6, -120.7,    0.9768, 3,     7782.6,  119.3,    0.9768
"SCN_CN15_9118_CEI230_ATV", 13.8, 1,    7772.51,   -0.7,   0.97553, 2,    7772.51, -120.7,   0.97553, 3,    7772.51,  119.3,   0.97553
"SCN_CN15_9117_CEI230_ATV", 13.8, 1,    7772.39,   -0.7,   0.97552, 2,    7772.39, -120.7,   0.97552, 3,    7772.39,  119.3,   0.97552
"SCN_CN15_9116_CEI230_ATV", 13.8, 1,    7772.27,   -0.7,    0.9755, 2,    7772.27, -120.7,    0.9755, 3,    7772.27,  119.3,    0.9755
"SCN_CN15_9014_CEIRJ003", 13.8, 1,    7772.15,   -0.7,   0.97549, 2,    7772.15, -120.7,   0.97549, 3,    7772.15,  119.3,   0.97549
"SCN_CN15_9002_CEI075", 13.8, 1,    7772.03,   -0.7,   0.97548, 2,    7772.03, -120.7,   0.97548, 3,    7772.03,  119.3,   0.97548
"SCN_CN15_9003_CEI075", 13.8, 1,    7771.92,   -0.7,   0.97546, 2,    7771.92, -120.7,   0.97546, 3,    7771.92,  119.3,   0.97546
"SCN_CN15_9282_CEI109", 13.8, 1,    7787.83,   -0.7,   0.97746, 2,    7787.83, -120.7,   0.97746, 3,    7787.83,  119.3,   0.97746
"SCN_CN15_9004_CEI075", 13.8, 1,     7771.8,   -0.7,   0.97545, 2,     7771.8, -120.7,   0.97545, 3,     7771.8,  119.3,   0.97545
"SCN_CN15_9052_CEIRJ006_ATV", 13.8, 1,    7771.91,   -0.7,   0.97546, 2,    7771.91, -120.7,   0.97546, 3,    7771.91,  119.3,   0.97546
"SCN_CN15_9005_CEI075", 13.8, 1,    7771.68,   -0.7,   0.97543, 2,    7771.68, -120.7,   0.97543, 3,    7771.68,  119.3,   0.97543
"SCN_CN15_9006_CEI075", 13.8, 1,    7771.57,   -0.7,   0.97542, 2,    7771.57, -120.7,   0.97542, 3,    7771.57,  119.3,   0.97542
"SCN_CN15_9007_CEI075", 13.8, 1,    7771.45,   -0.7,    0.9754, 2,    7771.45, -120.7,    0.9754, 3,    7771.45,  119.3,    0.9754
"SCN_CN15_9008_CEI075", 13.8, 1,    7771.33,   -0.7,   0.97539, 2,    7771.33, -120.7,   0.97539, 3,    7771.33,  119.3,   0.97539
"SCN_CN15_9009_CEI075", 13.8, 1,    7771.22,   -0.7,   0.97537, 2,    7771.22, -120.7,   0.97537, 3,    7771.22,  119.3,   0.97537
"SCN_CN15_9169_CEI230_ATV", 13.8, 1,    7771.22,   -0.7,   0.97537, 2,    7771.22, -120.7,   0.97537, 3,    7771.22,  119.3,   0.97537
"SCN_CN15_9010_CEI075", 13.8, 1,     7771.2,   -0.7,   0.97537, 2,     7771.2, -120.7,   0.97537, 3,     7771.2,  119.3,   0.97537
"SCN_CN15_9011_CEI075", 13.8, 1,    7771.17,   -0.7,   0.97537, 2,    7771.17, -120.7,   0.97537, 3,    7771.17,  119.3,   0.97537
"SCN_CN15_9012_CEI075", 13.8, 1,    7771.15,   -0.7,   0.97536, 2,    7771.15, -120.7,   0.97536, 3,    7771.15,  119.3,   0.97536
"SCN_CN15_9283_CEI109", 13.8, 1,    7788.05,   -0.7,   0.97749, 2,    7788.05, -120.7,   0.97749, 3,    7788.05,  119.3,   0.97749
"SCN_CN15_9013_CEI075", 13.8, 1,    7771.13,   -0.7,   0.97536, 2,    7771.13, -120.7,   0.97536, 3,    7771.13,  119.3,   0.97536
"SCN_CN15_9014_CEI075", 13.8, 1,     7771.1,   -0.7,   0.97536, 2,    7771.11, -120.7,   0.97536, 3,    7771.11,  119.3,   0.97536
"SCN_CN15_9015_CEI075", 13.8, 1,    7771.08,   -0.7,   0.97536, 2,    7771.08, -120.7,   0.97536, 3,    7771.08,  119.3,   0.97536
"SCN_CN15_9016_CEI075", 13.8, 1,    7771.06,   -0.7,   0.97535, 2,    7771.06, -120.7,   0.97535, 3,    7771.06,  119.3,   0.97535
"SCN_CN15_9017_CEI075", 13.8, 1,    7771.04,   -0.7,   0.97535, 2,    7771.04, -120.7,   0.97535, 3,    7771.04,  119.3,   0.97535
"SCN_CN15_9018_CEI075", 13.8, 1,    7771.01,   -0.7,   0.97535, 2,    7771.01, -120.7,   0.97535, 3,    7771.01,  119.3,   0.97535
"SCN_CN15_9019_CEI075", 13.8, 1,    7770.99,   -0.7,   0.97534, 2,    7770.99, -120.7,   0.97534, 3,    7770.99,  119.3,   0.97534
"SCN_CN15_9020_CEI075", 13.8, 1,    7770.97,   -0.7,   0.97534, 2,    7770.97, -120.7,   0.97534, 3,    7770.97,  119.3,   0.97534
"SCN_CN15_9022_CEI075", 13.8, 1,    7770.95,   -0.7,   0.97534, 2,    7770.95, -120.7,   0.97534, 3,    7770.95,  119.3,   0.97534
"SCN_CN15_9023_CEI075", 13.8, 1,    7770.93,   -0.7,   0.97534, 2,    7770.93, -120.7,   0.97534, 3,    7770.93,  119.3,   0.97534
"SCN_CN15_9284_CEI109", 13.8, 1,    7788.28,   -0.7,   0.97751, 2,    7788.28, -120.7,   0.97751, 3,    7788.28,  119.3,   0.97751
"SCN_CN15_9024_CEI075", 13.8, 1,    7770.91,   -0.7,   0.97533, 2,    7770.91, -120.7,   0.97533, 3,    7770.91,  119.3,   0.97533
"SCN_CN15_9025_CEI075", 13.8, 1,    7770.89,   -0.7,   0.97533, 2,    7770.89, -120.7,   0.97533, 3,    7770.89,  119.3,   0.97533
"SCN_CN15_9072_CEI230_ATV", 13.8, 1,    7770.89,   -0.7,   0.97533, 2,    7770.89, -120.7,   0.97533, 3,    7770.89,  119.3,   0.97533
"SCN_CN15_9028_CEI075", 13.8, 1,    7770.83,   -0.7,   0.97532, 2,    7770.83, -120.7,   0.97532, 3,    7770.83,  119.3,   0.97532
"SCN_CN15_9029_CEI075", 13.8, 1,    7770.82,   -0.7,   0.97532, 2,    7770.82, -120.7,   0.97532, 3,    7770.82,  119.3,   0.97532
"SCN_CN15_9027_CEI075", 13.8, 1,    7770.85,   -0.7,   0.97533, 2,    7770.85, -120.7,   0.97533, 3,    7770.85,  119.3,   0.97533
"SCN_CN15_9026_CEI075", 13.8, 1,    7770.87,   -0.7,   0.97533, 2,    7770.87, -120.7,   0.97533, 3,    7770.87,  119.3,   0.97533
"SCN_CN15_9030_CEI075", 13.8, 1,    7770.81,   -0.7,   0.97532, 2,    7770.81, -120.7,   0.97532, 3,    7770.81,  119.3,   0.97532
"SCN_CN15_9074_CEI230_ATV", 13.8, 1,     7770.8,   -0.7,   0.97532, 2,     7770.8, -120.7,   0.97532, 3,     7770.8,  119.3,   0.97532
"SCN_CN15_9075_CEI230_ATV", 13.8, 1,    7770.79,   -0.7,   0.97532, 2,    7770.79, -120.7,   0.97532, 3,    7770.79,  119.3,   0.97532
"SCN_CN15_9292_CEI109_S", 13.8, 1,     7788.5,   -0.7,   0.97754, 2,     7788.5, -120.7,   0.97754, 3,     7788.5,  119.3,   0.97754
"SCN_CN15_9076_CEI230_ATV_S", 13.8, 1,    7770.78,   -0.7,   0.97532, 2,    7770.78, -120.7,   0.97532, 3,    7770.78,  119.3,   0.97532
"SCN_CN15_9076_CEI230_ATV", 13.8, 1,    7770.78,   -0.7,   0.97532, 2,    7770.78, -120.7,   0.97532, 3,    7770.78,  119.3,   0.97532
"SCN_CN15_9079_CEI230_ATV", 13.8, 1,    7770.77,   -0.7,   0.97532, 2,    7770.77, -120.7,   0.97532, 3,    7770.77,  119.3,   0.97532
"SCN_CN15_9078_CEI230_ATV", 13.8, 1,    7770.77,   -0.7,   0.97532, 2,    7770.77, -120.7,   0.97532, 3,    7770.77,  119.3,   0.97532
"SCN_CN15_9077_CEI230_ATV", 13.8, 1,    7770.77,   -0.7,   0.97532, 2,    7770.77, -120.7,   0.97532, 3,    7770.77,  119.3,   0.97532
"SCN_CN15_9080_CEI230_ATV", 13.8, 1,    7770.77,   -0.7,   0.97532, 2,    7770.77, -120.7,   0.97532, 3,    7770.77,  119.3,   0.97532
"SCN_CN15_9081_CEI230_ATV", 13.8, 1,    7770.77,   -0.7,   0.97532, 2,    7770.77, -120.7,   0.97532, 3,    7770.77,  119.3,   0.97532
"SCN_CN15_9082_CEI230_ATV", 13.8, 1,    7770.77,   -0.7,   0.97532, 2,    7770.77, -120.7,   0.97532, 3,    7770.77,  119.3,   0.97532
"SCN_CN15_9084_CEI230_ATV", 13.8, 1,    7770.76,   -0.7,   0.97532, 2,    7770.76, -120.7,   0.97532, 3,    7770.76,  119.3,   0.97532
"SCN_CN15_9085_CEI230_ATV", 13.8, 1,    7770.76,   -0.7,   0.97532, 2,    7770.76, -120.7,   0.97532, 3,    7770.76,  119.3,   0.97532
"SCN_CN15_9086_CEI230_ATV", 13.8, 1,    7770.76,   -0.7,   0.97532, 2,    7770.76, -120.7,   0.97532, 3,    7770.76,  119.3,   0.97532
"SCN_CN15_9292_CEI109", 13.8, 1,     7788.5,   -0.7,   0.97754, 2,     7788.5, -120.7,   0.97754, 3,     7788.5,  119.3,   0.97754
"SCN_CN15_9423_CEI109", 13.8, 1,    7788.49,   -0.7,   0.97754, 2,    7788.49, -120.7,   0.97754, 3,    7788.49,  119.3,   0.97754
"SCN_CN15_9087_CEI230_ATV", 13.8, 1,    7770.76,   -0.7,   0.97531, 2,    7770.76, -120.7,   0.97531, 3,    7770.76,  119.3,   0.97531
"SCN_CN15_9083_CEI230_ATV", 13.8, 1,    7770.76,   -0.7,   0.97532, 2,    7770.76, -120.7,   0.97532, 3,    7770.76,  119.3,   0.97532
"SCN_CN15_9088_CEI230_ATV", 13.8, 1,    7770.76,   -0.7,   0.97532, 2,    7770.76, -120.7,   0.97532, 3,    7770.76,  119.3,   0.97532
"SCN_CN15_9090_CEI230_ATV", 13.8, 1,    7770.76,   -0.7,   0.97532, 2,    7770.76, -120.7,   0.97532, 3,    7770.76,  119.3,   0.97532
"SCN_CN15_9084_CEI148_ATV", 13.8, 1,     7779.1,   -0.7,   0.97636, 2,     7779.1, -120.7,   0.97636, 3,     7779.1,  119.3,   0.97636
"SCN_CN15_9083_CEI148_ATV", 13.8, 1,    7779.15,   -0.7,   0.97637, 2,    7779.15, -120.7,   0.97637, 3,    7779.15,  119.3,   0.97637
"SCN_CN15_9086_CEI148_ATV", 13.8, 1,    7779.07,   -0.7,   0.97636, 2,    7779.07, -120.7,   0.97636, 3,    7779.07,  119.3,   0.97636
"SCN_CN15_9100_CEI201_ATV", 13.8, 1,    7776.32,   -0.7,   0.97601, 2,    7776.32, -120.7,   0.97601, 3,    7776.32,  119.3,   0.97601
"SCN_CN15_9102_CEI201_ATV", 13.8, 1,    7776.32,   -0.7,   0.97601, 2,    7776.32, -120.7,   0.97601, 3,    7776.32,  119.3,   0.97601
"SCN_CN15_9087_CEI148_ATV", 13.8, 1,    7779.04,   -0.7,   0.97635, 2,    7779.04, -120.7,   0.97635, 3,    7779.04,  119.3,   0.97635
"SCN_CN15_9088_CEI148_ATV", 13.8, 1,    7779.03,   -0.7,   0.97635, 2,    7779.03, -120.7,   0.97635, 3,    7779.03,  119.3,   0.97635
"SCN_CN15_9090_CEI148_ATV", 13.8, 1,    7779.03,   -0.7,   0.97635, 2,    7779.03, -120.7,   0.97635, 3,    7779.03,  119.3,   0.97635
"SCN_CN15_9424_CEI109", 13.8, 1,    7788.48,   -0.7,   0.97754, 2,    7788.48, -120.7,   0.97754, 3,    7788.48,  119.3,   0.97754
"SCN_CN15_9034_CEI148A_ATV", 13.8, 1,    7779.02,   -0.7,   0.97635, 2,    7779.02, -120.7,   0.97635, 3,    7779.02,  119.3,   0.97635
"SCN_CN15_9033_CEI148A_ATV", 13.8, 1,    7778.99,   -0.7,   0.97635, 2,    7778.99, -120.7,   0.97635, 3,    7778.99,  119.3,   0.97635
"SCN_CN15_9035_CEI148A_ATV", 13.8, 1,    7778.99,   -0.7,   0.97635, 2,    7778.99, -120.7,   0.97635, 3,    7778.99,  119.3,   0.97635
"SCN_CN15_9031_CEI148A_ATV", 13.8, 1,    7778.97,   -0.7,   0.97635, 2,    7778.97, -120.7,   0.97635, 3,    7778.97,  119.3,   0.97635
"SCN_CN15_9030_CEI148A_ATV", 13.8, 1,    7778.95,   -0.7,   0.97634, 2,    7778.95, -120.7,   0.97634, 3,    7778.95,  119.3,   0.97634
"SCN_CN15_9029_CEI148A_ATV_S", 13.8, 1,    7778.95,   -0.7,   0.97634, 2,    7778.95, -120.7,   0.97634, 3,    7778.95,  119.3,   0.97634
"SCN_CN15_9028_CEI148A_ATV", 13.8, 1,    7778.95,   -0.7,   0.97634, 2,    7778.95, -120.7,   0.97634, 3,    7778.95,  119.3,   0.97634
"SCN_CN15_9029_CEI148A_ATV", 13.8, 1,    7778.95,   -0.7,   0.97634, 2,    7778.95, -120.7,   0.97634, 3,    7778.95,  119.3,   0.97634
"SCN_CN15_9032_CEI148A_ATV", 13.8, 1,    7778.95,   -0.7,   0.97634, 2,    7778.95, -120.7,   0.97634, 3,    7778.95,  119.3,   0.97634
"SCN_CN15_9078_CEI201_ATV", 13.8, 1,    7778.95,   -0.7,   0.97634, 2,    7778.95, -120.7,   0.97634, 3,    7778.95,  119.3,   0.97634
"SCN_CN15_9075_CEI201_ATV", 13.8, 1,    7778.95,   -0.7,   0.97634, 2,    7778.95, -120.7,   0.97634, 3,    7778.95,  119.3,   0.97634
"SCN_CN15_9425_CEI109", 13.8, 1,    7788.46,   -0.7,   0.97754, 2,    7788.46, -120.7,   0.97754, 3,    7788.46,  119.3,   0.97754
"SCN_CN15_9025_CEI148A_ATV", 13.8, 1,    7778.94,   -0.7,   0.97634, 2,    7778.94, -120.7,   0.97634, 3,    7778.94,  119.3,   0.97634
"SCN_CN15_9023_CEI148A_ATV_S", 13.8, 1,    7778.92,   -0.7,   0.97634, 2,    7778.92, -120.7,   0.97634, 3,    7778.92,  119.3,   0.97634
"SCN_CN15_9028_CEI69A", 13.8, 1,    7778.92,   -0.7,   0.97634, 2,    7778.92, -120.7,   0.97634, 3,    7778.92,  119.3,   0.97634
"SCN_CN15_9023_CEI148A_ATV", 13.8, 1,    7778.92,   -0.7,   0.97634, 2,    7778.92, -120.7,   0.97634, 3,    7778.92,  119.3,   0.97634
"SCN_CN15_9022_CEI148A_ATV", 13.8, 1,    7778.92,   -0.7,   0.97634, 2,    7778.92, -120.7,   0.97634, 3,    7778.92,  119.3,   0.97634
"SCN_CN15_9021_CEI148A_ATV", 13.8, 1,    7778.91,   -0.7,   0.97634, 2,    7778.91, -120.7,   0.97634, 3,    7778.91,  119.3,   0.97634
"SCN_CN15_9020_CEI148A_ATV_S", 13.8, 1,    7778.91,   -0.7,   0.97634, 2,    7778.91, -120.7,   0.97634, 3,    7778.91,  119.3,   0.97634
"SCN_CN15_9020_CEI148A_ATV", 13.8, 1,    7778.91,   -0.7,   0.97634, 2,    7778.91, -120.7,   0.97634, 3,    7778.91,  119.3,   0.97634
"SCN_CN15_9019_CEI148A_ATV", 13.8, 1,    7778.91,   -0.7,   0.97634, 2,    7778.91, -120.7,   0.97634, 3,    7778.91,  119.3,   0.97634
"SCN_CN15_9001_CEI148A_ATV", 13.8, 1,    7778.78,   -0.7,   0.97632, 2,    7778.78, -120.7,   0.97632, 3,    7778.78,  119.3,   0.97632
"SCN_CN15_9002_CEI148A_ATV", 13.8, 1,    7778.78,   -0.7,   0.97632, 2,    7778.78, -120.7,   0.97632, 3,    7778.78,  119.3,   0.97632
"SCN_CN15_9003_CEI148A_ATV", 13.8, 1,    7778.78,   -0.7,   0.97632, 2,    7778.78, -120.7,   0.97632, 3,    7778.78,  119.3,   0.97632
"SCN_CN15_9005_CEI148A_ATV", 13.8, 1,    7778.78,   -0.7,   0.97632, 2,    7778.78, -120.7,   0.97632, 3,    7778.78,  119.3,   0.97632
"SCN_CN15_9426_CEI109", 13.8, 1,    7788.45,   -0.7,   0.97754, 2,    7788.45, -120.7,   0.97754, 3,    7788.45,  119.3,   0.97754
"SCN_CN15_9004_CEI148A_ATV", 13.8, 1,    7778.78,   -0.7,   0.97632, 2,    7778.78, -120.7,   0.97632, 3,    7778.78,  119.3,   0.97632
"SCN_CN15_9143_CEI220_ATV", 13.8, 1,    7782.63,   -0.7,   0.97681, 2,    7782.63, -120.7,   0.97681, 3,    7782.63,  119.3,   0.97681
"SCN_CN15_9144_CEI220_ATV", 13.8, 1,    7782.63,   -0.7,   0.97681, 2,    7782.63, -120.7,   0.97681, 3,    7782.63,  119.3,   0.97681
"SCN_CN15_9006_CEI148A_ATV", 13.8, 1,    7778.79,   -0.7,   0.97632, 2,    7778.79, -120.7,   0.97632, 3,    7778.79,  119.3,   0.97632
"SCN_CN15_9007_CEI148A_ATV", 13.8, 1,    7778.79,   -0.7,   0.97632, 2,    7778.79, -120.7,   0.97632, 3,    7778.79,  119.3,   0.97632
"SCN_CN15_9008_CEI148A_ATV", 13.8, 1,     7778.8,   -0.7,   0.97632, 2,     7778.8, -120.7,   0.97632, 3,     7778.8,  119.3,   0.97632
"SCN_CN15_9010_CEI148A_ATV", 13.8, 1,    7778.81,   -0.7,   0.97633, 2,    7778.81, -120.7,   0.97633, 3,    7778.81,  119.3,   0.97633
"SCN_CN15_9009_CEI148A_ATV", 13.8, 1,     7778.8,   -0.7,   0.97632, 2,     7778.8, -120.7,   0.97632, 3,     7778.8,  119.3,   0.97632
"SCN_CN15_9011_CEI148A_ATV", 13.8, 1,    7778.82,   -0.7,   0.97633, 2,    7778.82, -120.7,   0.97633, 3,    7778.82,  119.3,   0.97633
"SCN_CN15_9012_CEI148A_ATV", 13.8, 1,    7778.83,   -0.7,   0.97633, 2,    7778.83, -120.7,   0.97633, 3,    7778.83,  119.3,   0.97633
"SCN_CN15_9013_CEI148A_ATV", 13.8, 1,    7778.84,   -0.7,   0.97633, 2,    7778.84, -120.7,   0.97633, 3,    7778.84,  119.3,   0.97633
"SCN_CN15_9014_CEI148A_ATV", 13.8, 1,    7778.85,   -0.7,   0.97633, 2,    7778.85, -120.7,   0.97633, 3,    7778.85,  119.3,   0.97633
"SCN_CN15_9015_CEI148A_ATV", 13.8, 1,    7778.86,   -0.7,   0.97633, 2,    7778.86, -120.7,   0.97633, 3,    7778.86,  119.3,   0.97633
"SCN_CN15_9427_CEI109", 13.8, 1,    7788.44,   -0.7,   0.97753, 2,    7788.44, -120.7,   0.97753, 3,    7788.44,  119.3,   0.97753
"SCN_CN15_9016_CEI148A_ATV", 13.8, 1,    7778.87,   -0.7,   0.97633, 2,    7778.87, -120.7,   0.97633, 3,    7778.87,  119.3,   0.97633
"SCN_CN15_9017_CEI148A_ATV", 13.8, 1,    7778.88,   -0.7,   0.97633, 2,    7778.88, -120.7,   0.97633, 3,    7778.88,  119.3,   0.97633
"SCN_CN15_9018_CEI148A_ATV", 13.8, 1,    7778.89,   -0.7,   0.97634, 2,    7778.89, -120.7,   0.97634, 3,    7778.89,  119.3,   0.97634
"SCN_CN15_9020_CEI69A", 13.8, 1,    7778.91,   -0.7,   0.97634, 2,    7778.91, -120.7,   0.97634, 3,    7778.91,  119.3,   0.97634
"SCN_CN15_9018_CEI148A_ATV_S", 13.8, 1,    7778.89,   -0.7,   0.97634, 2,    7778.89, -120.7,   0.97634, 3,    7778.89,  119.3,   0.97634
"SCN_CN15_9019_CEI69A", 13.8, 1,     7778.9,   -0.7,   0.97634, 2,     7778.9, -120.7,   0.97634, 3,     7778.9,  119.3,   0.97634
"SCN_CN15_9018_CEI69A", 13.8, 1,     7778.9,   -0.7,   0.97634, 2,     7778.9, -120.7,   0.97634, 3,     7778.9,  119.3,   0.97634
"SCN_CN15_9017_CEI69A", 13.8, 1,     7778.9,   -0.7,   0.97634, 2,     7778.9, -120.7,   0.97634, 3,     7778.9,  119.3,   0.97634
"SCN_CN15_9016_CEI69A", 13.8, 1,     7778.9,   -0.7,   0.97634, 2,     7778.9, -120.7,   0.97634, 3,     7778.9,  119.3,   0.97634
"SCN_CN15_9015_CEI69A", 13.8, 1,     7778.9,   -0.7,   0.97634, 2,     7778.9, -120.7,   0.97634, 3,     7778.9,  119.3,   0.97634
"SCN_CN15_9428_CEI109", 13.8, 1,    7788.42,   -0.7,   0.97753, 2,    7788.42, -120.7,   0.97753, 3,    7788.42,  119.3,   0.97753
"SCN_CN15_9012_CEI69A_S", 13.8, 1,    7778.89,   -0.7,   0.97634, 2,    7778.89, -120.7,   0.97634, 3,    7778.89,  119.3,   0.97634
"SCN_CN15_9012_CEI69A", 13.8, 1,    7778.89,   -0.7,   0.97634, 2,    7778.89, -120.7,   0.97634, 3,    7778.89,  119.3,   0.97634
"SCN_CN15_9013_CEI69A", 13.8, 1,    7778.89,   -0.7,   0.97634, 2,    7778.89, -120.7,   0.97634, 3,    7778.89,  119.3,   0.97634
"SCN_CN15_9014_CEI69A", 13.8, 1,    7778.89,   -0.7,   0.97634, 2,    7778.89, -120.7,   0.97634, 3,    7778.89,  119.3,   0.97634
"SCN_CN15_9011_CEI69A", 13.8, 1,    7778.89,   -0.7,   0.97634, 2,    7778.89, -120.7,   0.97634, 3,    7778.89,  119.3,   0.97634
"SCN_CN15_9073_CEIRJ006_ATV", 13.8, 1,    7779.02,   -0.7,   0.97635, 2,    7779.02, -120.7,   0.97635, 3,    7779.02,  119.3,   0.97635
"SCN_CN15_9091_CEI148_ATV", 13.8, 1,    7779.02,   -0.7,   0.97635, 2,    7779.02, -120.7,   0.97635, 3,    7779.02,  119.3,   0.97635
"SCN_CN15_9092_CEI148_ATV", 13.8, 1,    7779.02,   -0.7,   0.97635, 2,    7779.02, -120.7,   0.97635, 3,    7779.02,  119.3,   0.97635
"SCN_CN15_9089_CEI148_ATV", 13.8, 1,    7779.02,   -0.7,   0.97635, 2,    7779.02, -120.7,   0.97635, 3,    7779.02,  119.3,   0.97635
"SCN_CN15_9042_CEI69A", 13.8, 1,    7779.03,   -0.7,   0.97635, 2,    7779.03, -120.7,   0.97635, 3,    7779.03,  119.3,   0.97635
"SCN_CN15_9100_CEI072", 13.8, 1,    7751.64,   -0.7,   0.97292, 2,    7751.64, -120.7,   0.97292, 3,    7751.64,  119.3,   0.97292
"SCN_CN15_9101_CEI072", 13.8, 1,    7751.64,   -0.7,   0.97292, 2,    7751.64, -120.7,   0.97292, 3,    7751.64,  119.3,   0.97292
"SCN_CN15_9102_CEI072", 13.8, 1,    7751.63,   -0.7,   0.97291, 2,    7751.63, -120.7,   0.97291, 3,    7751.63,  119.3,   0.97291
"SCN_CN15_9103_CEI072", 13.8, 1,    7751.63,   -0.7,   0.97291, 2,    7751.63, -120.7,   0.97291, 3,    7751.63,  119.3,   0.97291
"SCN_CN15_9104_CEI072", 13.8, 1,    7751.63,   -0.7,   0.97291, 2,    7751.63, -120.7,   0.97291, 3,    7751.63,  119.3,   0.97291
"SCN_CN15_9105_CEI072", 13.8, 1,    7751.63,   -0.7,   0.97291, 2,    7751.63, -120.7,   0.97291, 3,    7751.63,  119.3,   0.97291
"SCN_CN15_9491_CEI109", 13.8, 1,    7782.72,   -0.7,   0.97682, 2,    7782.72, -120.7,   0.97682, 3,    7782.72,  119.3,   0.97682
"SCN_CN15_9492_CEI109", 13.8, 1,     7782.7,   -0.7,   0.97681, 2,     7782.7, -120.7,   0.97681, 3,     7782.7,  119.3,   0.97681
"SCN_CN15_9106_CEI072", 13.8, 1,    7751.62,   -0.7,   0.97291, 2,    7751.62, -120.7,   0.97291, 3,    7751.62,  119.3,   0.97291
"SCN_CN15_9107_CEI072", 13.8, 1,    7751.62,   -0.7,   0.97291, 2,    7751.62, -120.7,   0.97291, 3,    7751.62,  119.3,   0.97291
"SCN_CN15_9108_CEI072", 13.8, 1,    7751.62,   -0.7,   0.97291, 2,    7751.62, -120.7,   0.97291, 3,    7751.62,  119.3,   0.97291
"SCN_CN15_9109_CEI072", 13.8, 1,    7751.62,   -0.7,   0.97291, 2,    7751.62, -120.7,   0.97291, 3,    7751.62,  119.3,   0.97291
"SCN_CN15_9110_CEI072", 13.8, 1,    7751.61,   -0.7,   0.97291, 2,    7751.61, -120.7,   0.97291, 3,    7751.61,  119.3,   0.97291
"SCN_CN15_9111_CEI072", 13.8, 1,    7751.61,   -0.7,   0.97291, 2,    7751.61, -120.7,   0.97291, 3,    7751.61,  119.3,   0.97291
"SCN_CN15_9112_CEI072", 13.8, 1,    7751.61,   -0.7,   0.97291, 2,    7751.61, -120.7,   0.97291, 3,    7751.61,  119.3,   0.97291
"SCN_CN15_9113_CEI072", 13.8, 1,    7751.61,   -0.7,   0.97291, 2,    7751.61, -120.7,   0.97291, 3,    7751.61,  119.3,   0.97291
...
"SCN_CN15_592-0899-22", 13.8, 1,    7774.55,   -0.7,   0.97579, 2,    7774.55, -120.7,   0.97579, 3,    7774.55,  119.3,   0.97579
"SCN_CN15_592-0899-22_S", 13.8, 1,    7774.55,   -0.7,   0.97579, 2,    7774.55, -120.7,   0.97579, 3,    7774.55,  119.3,   0.97579
"SCN_CN15_9013_CEI69B", 13.8, 1,    7773.45,   -0.7,   0.97565, 2,    7773.45, -120.7,   0.97565, 3,    7773.45,  119.3,   0.97565
"SCN_CN15_9015_CEI69B_S", 13.8, 1,    7773.93,   -0.7,   0.97571, 2,    7773.93, -120.7,   0.97571, 3,    7773.93,  119.3,   0.97571
"SCN_CN15_9012_CEI69B", 13.8, 1,    7772.97,   -0.7,   0.97559, 2,    7772.97, -120.7,   0.97559, 3,    7772.97,  119.3,   0.97559
"SCN_CN15_9011_CEI69B", 13.8, 1,    7772.49,   -0.7,   0.97553, 2,    7772.49, -120.7,   0.97553, 3,    7772.49,  119.3,   0.97553
"SCN_CN15_9162_CEI068", 13.8, 1,    7772.01,   -0.7,   0.97547, 2,    7772.01, -120.7,   0.97547, 3,    7772.01,  119.3,   0.97547
"SCN_CN15_9163_CEI068", 13.8, 1,    7771.53,   -0.7,   0.97541, 2,    7771.53, -120.7,   0.97541, 3,    7771.53,  119.3,   0.97541
"SCN_CN15_9164_CEI068", 13.8, 1,    7771.05,   -0.7,   0.97535, 2,    7771.05, -120.7,   0.97535, 3,    7771.05,  119.3,   0.97535
"SCN_CN15_9451_CEI109", 13.8, 1,    7788.32,   -0.7,   0.97752, 2,    7788.32, -120.7,   0.97752, 3,    7788.32,  119.3,   0.97752
"SCN_CN15_9169_CEI068", 13.8, 1,    7770.08,   -0.7,   0.97523, 2,    7770.08, -120.7,   0.97523, 3,    7770.08,  119.3,   0.97523
"SCN_CN15_9170_CEI068", 13.8, 1,     7770.1,   -0.7,   0.97523, 2,     7770.1, -120.7,   0.97523, 3,     7770.1,  119.3,   0.97523
"SCN_CN15_9170_CEI068_S", 13.8, 1,     7770.1,   -0.7,   0.97523, 2,     7770.1, -120.7,   0.97523, 3,     7770.1,  119.3,   0.97523
"SCN_CN15_9171_CEI068", 13.8, 1,    7769.66,   -0.7,   0.97518, 2,    7769.66, -120.7,   0.97518, 3,    7769.66,  119.3,   0.97518
"SCN_CN15_9172_CEI068", 13.8, 1,    7769.22,   -0.7,   0.97512, 2,    7769.22, -120.7,   0.97512, 3,    7769.22,  119.3,   0.97512
"SCN_CN15_9182_CEI068", 13.8, 1,    7768.78,   -0.7,   0.97507, 2,    7768.78, -120.7,   0.97507, 3,    7768.78,  119.3,   0.97507
"SCN_CN15_9181_CEI068", 13.8, 1,    7768.77,   -0.7,   0.97507, 2,    7768.77, -120.7,   0.97507, 3,    7768.77,  119.3,   0.97507
"SCN_CN15_9182_CEI068_S", 13.8, 1,    7768.78,   -0.7,   0.97507, 2,    7768.78, -120.7,   0.97507, 3,    7768.78,  119.3,   0.97507
"SCN_CN15_9183_CEI068", 13.8, 1,    7768.34,   -0.7,   0.97501, 2,    7768.34, -120.7,   0.97501, 3,    7768.34,  119.3,   0.97501
"SCN_CN15_9183_CEI068_S", 13.8, 1,    7768.34,   -0.7,   0.97501, 2,    7768.34, -120.7,   0.97501, 3,    7768.34,  119.3,   0.97501
"SCN_CN15_9186_CEI068", 13.8, 1,     7767.9,   -0.7,   0.97496, 2,     7767.9, -120.7,   0.97496, 3,     7767.9,  119.3,   0.97496
"SCN_CN15_9107_CEI068", 13.8, 1,    7767.47,   -0.7,    0.9749, 2,    7767.47, -120.7,    0.9749, 3,    7767.47,  119.3,    0.9749
"SCN_CN15_9450_CEI109", 13.8, 1,    7788.32,   -0.7,   0.97752, 2,    7788.32, -120.7,   0.97752, 3,    7788.32,  119.3,   0.97752
"SCN_CN15_9103_CEI068", 13.8, 1,    7767.04,   -0.7,   0.97485, 2,    7767.04, -120.7,   0.97485, 3,    7767.04,  119.3,   0.97485
"SCN_CN15_9092_CEI068", 13.8, 1,    7767.02,   -0.7,   0.97485, 2,    7767.02, -120.7,   0.97485, 3,    7767.02,  119.3,   0.97485
"SCN_CN15_9091_CEI068", 13.8, 1,       7767,   -0.7,   0.97484, 2,       7767, -120.7,   0.97484, 3,       7767,  119.3,   0.97484
"SCN_CN15_9090_CEI068", 13.8, 1,    7766.98,   -0.7,   0.97484, 2,    7766.98, -120.7,   0.97484, 3,    7766.98,  119.3,   0.97484
"SCN_CN15_9089_CEI068_S", 13.8, 1,    7766.95,   -0.7,   0.97484, 2,    7766.95, -120.7,   0.97484, 3,    7766.95,  119.3,   0.97484
"SCN_CN15_9086_CEI068", 13.8, 1,    7766.93,   -0.7,   0.97484, 2,    7766.93, -120.7,   0.97484, 3,    7766.93,  119.3,   0.97484
"SCN_CN15_9085_CEI068", 13.8, 1,    7766.91,   -0.7,   0.97483, 2,    7766.91, -120.7,   0.97483, 3,    7766.91,  119.3,   0.97483
"SCN_CN15_9086_CEI068_S", 13.8, 1,    7766.93,   -0.7,   0.97484, 2,    7766.93, -120.7,   0.97484, 3,    7766.93,  119.3,   0.97484
"SCN_CN15_9082_CEI068", 13.8, 1,    7766.89,   -0.7,   0.97483, 2,    7766.89, -120.7,   0.97483, 3,    7766.89,  119.3,   0.97483
"SCN_CN15_9081_CEI068", 13.8, 1,    7766.87,   -0.7,   0.97483, 2,    7766.87, -120.7,   0.97483, 3,    7766.87,  119.3,   0.97483
"SCN_CN15_9080_CEI068", 13.8, 1,    7766.85,   -0.7,   0.97482, 2,    7766.85, -120.7,   0.97482, 3,    7766.85,  119.3,   0.97482
"SCN_CN15_9026_CEI201_ATV", 13.8, 1,    7781.97,   -0.7,   0.97672, 2,    7781.97, -120.7,   0.97672, 3,    7781.97,  119.3,   0.97672
"SCN_CN15_9027_CEI201_ATV", 13.8, 1,    7782.01,   -0.7,   0.97673, 2,    7782.01, -120.7,   0.97673, 3,    7782.01,  119.3,   0.97673
"SCN_CN15_9449_CEI109", 13.8, 1,    7788.31,   -0.7,   0.97752, 2,    7788.31, -120.7,   0.97752, 3,    7788.31,  119.3,   0.97752
"SCN_CN15_9079_CEI068", 13.8, 1,    7766.83,   -0.7,   0.97482, 2,    7766.83, -120.7,   0.97482, 3,    7766.83,  119.3,   0.97482
"SCN_CN15_9078_CEI068", 13.8, 1,     7766.8,   -0.7,   0.97482, 2,     7766.8, -120.7,   0.97482, 3,     7766.8,  119.3,   0.97482
"SCN_CN15_9077_CEI068", 13.8, 1,    7766.78,   -0.7,   0.97482, 2,    7766.78, -120.7,   0.97482, 3,    7766.78,  119.3,   0.97482
"SCN_CN15_9076_CEI068", 13.8, 1,    7766.76,   -0.7,   0.97481, 2,    7766.76, -120.7,   0.97481, 3,    7766.76,  119.3,   0.97481
"SCN_CN15_9075_CEI068", 13.8, 1,    7766.74,   -0.7,   0.97481, 2,    7766.74, -120.7,   0.97481, 3,    7766.74,  119.3,   0.97481
"SCN_CN15_9074_CEI068", 13.8, 1,    7766.72,   -0.7,   0.97481, 2,    7766.72, -120.7,   0.97481, 3,    7766.72,  119.3,   0.97481
"SCN_CN15_9073_CEI068", 13.8, 1,     7766.7,   -0.7,   0.97481, 2,     7766.7, -120.7,   0.97481, 3,     7766.7,  119.3,   0.97481
"SCN_CN15_9072_CEI068", 13.8, 1,    7766.68,   -0.7,    0.9748, 2,    7766.68, -120.7,    0.9748, 3,    7766.68,  119.3,    0.9748
"SCN_CN15_9071_CEI068", 13.8, 1,    7766.66,   -0.7,    0.9748, 2,    7766.66, -120.7,    0.9748, 3,    7766.66,  119.3,    0.9748
"SCN_CN15_9070_CEI068", 13.8, 1,    7766.64,   -0.7,    0.9748, 2,    7766.64, -120.7,    0.9748, 3,    7766.64,  119.3,    0.9748
...